33
1-Decanol, ID: C112301
C          3.95130        3.95390        3.42230
C          5.37420        3.65010        2.99190
C          5.46280        3.37690        1.49800
C          3.86810        4.26180        4.90990
C          6.84850        2.88600        1.10390
C          2.47690        4.73400        5.30390
C          7.14820        1.52430        1.71200
C          2.13710        6.06950        4.65940
C          8.59110        1.08730        1.47990
C          0.69890        6.46120        4.90620
O          9.42070        1.79740        2.37170
H          3.28760        3.10100        3.17650
H          3.54480        4.82040        2.85140
H          5.76470        2.76200        3.54160
H          6.04810        4.48560        3.26760
H          5.21520        4.29520        0.93060
H          4.70090        2.62770        1.20260
H          4.61650        5.03460        5.17910
H          4.14250        3.36330        5.49670
H          6.92680        2.83300        0.00000
H          7.61350        3.62050        1.42490
H          2.40810        4.81880        6.40610
H          1.72470        3.97250        5.01510
H          6.91240        1.55880        2.80120
H          6.47000        0.76120        1.28260
H          2.34430        6.00220        3.56690
H          2.81730        6.85620        5.04070
H          8.69880        0.00000        1.66300
H          8.89720        1.27690        0.43160
H          0.46160        7.42320        4.43500
H          0.00000        5.71680        4.50220
H          0.48600        6.55900        5.97900
H         10.31170        1.55830        2.15710
