10
Cadmium complex from DOI: 10.1039/b807639a
Cd        0.0000000000    0.0000000000    0.0000000000
N         0.0000000000    0.0000000000   -2.2600008970
N        -0.6854436698    0.0000000000   -4.3480351655
C         0.6760532805    0.0000000000   -4.3850691187
C         1.0852403953    0.0000000000   -3.0912314816
C        -1.0447523109    0.0000000000   -3.0602199799
H         1.2315298718    0.0000000000   -5.3007585398
H         2.0886409029    0.0000000000   -2.7110770357
H        -2.0687498391    0.0000000000   -2.7265147865
H        -1.3131700009    0.0000000000   -5.1747176683
