42
Cluster created on Thu Feb 19 17:29:20 2009, boxsize 40.604801 40.604801 40.604801.
C    1.310    0.330   -0.500
H    1.960   -0.200    0.190
H    1.580   -0.060   -1.480
H    1.500    1.380   -0.420
O    0.000    0.000    0.000
H   -0.610    0.820    0.100
C   -2.150   -2.470    1.090
H   -2.200   -2.090    2.120
H   -2.880   -3.230    0.890
H   -1.170   -2.840    1.130
O   -2.430   -1.400    0.230
H   -1.590   -0.870    0.010
C    1.360   -0.840    3.130
H    0.740   -1.170    2.290
H    0.670   -0.610    3.910
H    1.980    0.050    2.930
O    2.180   -1.880    3.600
H    1.600   -2.620    3.910
C   -1.550    1.900    2.620
H   -1.440    0.810    2.610
H   -2.520    2.020    2.120
H   -0.730    2.360    2.050
O   -1.440    2.280    3.960
H   -1.570    3.260    4.020
C    2.570   -3.260    0.290
H    1.660   -2.700    0.520
H    3.220   -2.640   -0.290
H    2.480   -4.110   -0.420
O    3.150   -3.680    1.550
H    2.890   -3.010    2.230
C   -0.130   -2.760   -2.860
H    0.670   -2.530   -2.150
H   -1.010   -2.150   -2.640
H   -0.240   -3.930   -2.800
O    0.270   -2.510   -4.260
H    1.140   -2.960   -4.420
C   -1.500    2.240   -2.100
H   -1.790    3.210   -2.390
H   -0.480    2.200   -2.540
H   -2.050    1.560   -2.780
O   -1.880    1.940   -0.760
H   -2.780    1.810   -0.860
